Circuit: * C:\Users\ash750\OneDrive - The University of Auckland\Documents\GitHub\P4P_Project-130\LT_SPICE\Draft4.asc

.OP point found by inspection.

Date: Fri May 02 10:53:11 2025
Total elapsed time: 0.198 seconds.

tnom = 27
temp = 27
method = modified trap
totiter = 56153
traniter = 56153
tranpoints = 11428
accept = 8790
rejected = 2638
matrix size = 19
fillins = 1
solver = Normal
Matrix Compiler1: 1.44 KB object code size  0.1/0.1/[0.1]
Matrix Compiler2: off  [0.1]/0.1/0.1

