Circuit: * D:\p4p\P4P_Project-130\LT_SPICE\Draft4.asc

.OP point found by inspection.

Date: Sat Mar 29 22:38:15 2025
Total elapsed time: 0.284 seconds.

tnom = 27
temp = 27
method = modified trap
totiter = 56076
traniter = 56076
tranpoints = 11451
accept = 8814
rejected = 2637
matrix size = 19
fillins = 1
solver = Normal
Avg thread counts: 1.1/1.4/1.4/1.1
Matrix Compiler1: 1.47 KB object code size  0.2/0.2/[0.2]
Matrix Compiler2: off  [0.2]/0.2/0.2

